<?xml version="1.0" encoding="UTF-8"?>

<!-- generated on 2024-10-08 17:55:27 by Eclipse SUMO netedit Version 1.20.0
-->

<routes xmlns:xsi="http://www.w3.org/2001/XMLSchema-instance" xsi:noNamespaceSchemaLocation="http://sumo.dlr.de/xsd/routes_file.xsd">
    <!-- Routes -->
    <route id="r_0" edges="E3 E5"/>
    <route id="r_1" edges="E3 E1"/>
    <route id="r_10" edges="-E6 E1"/>
    <route id="r_11" edges="-E6 E5"/>
    <route id="r_12" edges="-E6 -E3"/>
    <route id="r_2" edges="E3 E6"/>
    <route id="r_3" edges="-E5 E1"/>
    <route id="r_4" edges="-E5 E6"/>
    <route id="r_5" edges="-E5"/>
    <route id="r_6" edges="-E5 -E3"/>
    <route id="r_7" edges="-E1 E5"/>
    <route id="r_8" edges="-E1 -E3"/>
    <route id="r_9" edges="-E1 E6"/>
    <!-- Vehicles, persons and containers (sorted by depart) -->
    <flow id="f_0" begin="0.00" route="r_8" end="3600.00" vehsPerHour="500"/>
    <flow id="f_1" begin="0.00" route="r_4" end="3600.00" vehsPerHour="699.9805560956640420045"/>
    <flow id="f_2" begin="0.00" route="r_2" end="3600.00" vehsPerHour="300"/>
    <flow id="f_3" begin="0.00" route="r_7" end="3600.00" vehsPerHour="1000"/>
    <flow id="f_4" begin="0.00" route="r_11" end="3600.00" vehsPerHour="600"/>
</routes>
