<?xml version="1.0" encoding="UTF-8"?>

<!-- generated on 2024-10-08 17:56:18 by Eclipse SUMO sumo Version 1.20.0
-->

<configuration xmlns:xsi="http://www.w3.org/2001/XMLSchema-instance" xsi:noNamespaceSchemaLocation="http://sumo.dlr.de/xsd/sumoConfiguration.xsd">

    <input>
        <net-file value="../SUMOprojectnet.net.xml"/>
        <route-files value="SUMOproject_netconfig.rou.xml"/>
    </input>

</configuration>
